Circuit: * C:\Users\ICKE\Desktop\BA_Arbeit_Ordner\Simulationen\Eingangsfilter_Simu\Eingangsfilter.asc

C2: Increased Cpar to 4.7e-012

Date: Sat Sep 18 21:46:31 2021
Total elapsed time: 0.146 seconds.

tnom = 27
temp = 27
method = trap
totiter = 0
traniter = 0
tranpoints = 0
accept = 0
rejected = 0
matrix size = 11
fillins = 2
solver = Normal

